Version 4
SHEET 1 1392 1168
WIRE 336 448 176 448
WIRE 496 448 336 448
WIRE 1024 448 496 448
WIRE 176 512 176 448
WIRE 496 528 496 448
WIRE -416 672 -528 672
WIRE -304 672 -416 672
WIRE -224 672 -304 672
WIRE -80 672 -144 672
WIRE 336 704 336 448
WIRE -80 720 -80 672
WIRE -32 720 -80 720
WIRE 16 720 -32 720
WIRE 304 720 96 720
WIRE -528 736 -528 672
WIRE -416 736 -416 672
WIRE 464 736 368 736
WIRE 496 736 496 608
WIRE 496 736 464 736
WIRE 1024 736 1024 448
WIRE 176 752 176 592
WIRE 208 752 176 752
WIRE 304 752 288 752
WIRE -304 768 -304 672
WIRE -32 800 -32 720
WIRE -848 816 -1008 816
WIRE -704 816 -752 816
WIRE -528 816 -528 800
WIRE -528 816 -624 816
WIRE -416 816 -416 800
WIRE -352 816 -416 816
WIRE -80 816 -80 720
WIRE 176 816 176 752
WIRE -1008 832 -1008 816
WIRE -528 832 -528 816
WIRE -416 832 -416 816
WIRE -848 848 -848 816
WIRE -832 848 -848 848
WIRE -752 848 -752 816
WIRE -752 848 -768 848
WIRE -832 880 -848 880
WIRE -752 880 -768 880
WIRE -848 912 -848 880
WIRE -848 912 -1008 912
WIRE -752 912 -752 880
WIRE -576 912 -752 912
WIRE -528 944 -528 896
WIRE -416 944 -416 896
WIRE -416 944 -528 944
WIRE -304 944 -304 848
WIRE -304 944 -416 944
WIRE -80 944 -80 880
WIRE -80 944 -304 944
WIRE -32 944 -32 880
WIRE -32 944 -80 944
WIRE 176 944 176 896
WIRE 176 944 -32 944
WIRE 336 944 336 768
WIRE 336 944 176 944
WIRE 1024 944 1024 816
WIRE 1024 944 336 944
WIRE 1024 976 1024 944
WIRE -576 1008 -576 912
WIRE -352 1008 -352 816
WIRE -352 1008 -576 1008
FLAG 1024 976 0
FLAG 464 736 out
SYMBOL voltage 1024 720 R0
SYMATTR InstName V1
SYMATTR Value 16
SYMBOL Opamps/opamp2 336 672 R0
SYMATTR InstName U1
SYMATTR Value LM393
SYMATTR SpiceModel LM393
SYMBOL res 480 512 R0
SYMATTR InstName R1
SYMATTR Value 5k6
SYMBOL res 160 496 R0
SYMATTR InstName R2
SYMATTR Value 20k
SYMBOL res 160 800 R0
SYMATTR InstName R3
SYMATTR Value 3k3
SYMBOL diode -400 896 R180
WINDOW 0 24 64 Left 2
WINDOW 3 24 0 Left 2
SYMATTR InstName D1
SYMATTR Value 1N4148
SYMBOL diode -400 800 R180
WINDOW 0 24 64 Left 2
WINDOW 3 24 0 Left 2
SYMATTR InstName D2
SYMATTR Value 1N4148
SYMBOL diode -512 800 R180
WINDOW 0 24 64 Left 2
WINDOW 3 24 0 Left 2
SYMATTR InstName D3
SYMATTR Value 1N4148
SYMBOL diode -512 896 R180
WINDOW 0 24 64 Left 2
WINDOW 3 24 0 Left 2
SYMATTR InstName D4
SYMATTR Value 1N4148
SYMBOL res -320 752 R0
SYMATTR InstName R4
SYMATTR Value 22
SYMBOL res -128 656 R90
WINDOW 0 -5 57 VBottom 2
WINDOW 3 32 56 VTop 2
SYMATTR InstName R5
SYMATTR Value 12k
SYMBOL cap -64 880 R180
WINDOW 0 24 56 Left 2
WINDOW 3 24 8 Left 2
SYMATTR InstName C1
SYMATTR Value 47p
SYMBOL current -1008 832 R0
WINDOW 123 24 102 Left 2
SYMATTR Value2 AC 1
SYMATTR InstName I1
SYMATTR Value PWL(0 0 3m 14 6m -14 9m 0)
SYMBOL res -608 800 R90
WINDOW 0 -5 57 VBottom 2
WINDOW 3 32 56 VTop 2
SYMATTR InstName R6
SYMATTR Value 1
SYMBOL res 112 704 R90
WINDOW 0 -5 57 VBottom 2
WINDOW 3 32 56 VTop 2
SYMATTR InstName R7
SYMATTR Value 12k
SYMBOL res 304 736 R90
WINDOW 0 -5 57 VBottom 2
WINDOW 3 32 56 VTop 2
SYMATTR InstName R8
SYMATTR Value 12k
SYMBOL CurrentXFR -800 864 R0
SYMATTR InstName U2
SYMATTR Value2 Lm=100µH Rwire=5 Cp=20pF n1=80
SYMBOL res -48 784 R0
SYMATTR InstName R9
SYMATTR Value 47k
TEXT 112 -208 Left 2 !.tran 0 10m 10µ\n;.ac oct 100 100 1000k
TEXT -864 -248 Left 2 !* LM393 VOLTAGE COMPARATOR "MACROMODEL" SUBCIRCUIT\n* CREATED USING PARTS VERSION 4.03 ON 03/07/90 AT 14:17\n* REV (N/A)\n* CONNECTIONS:   NON-INVERTING INPUT\n*                | INVERTING INPUT\n*                | | POSITIVE POWER SUPPLY\n*                | | | NEGATIVE POWER SUPPLY\n*                | | | | OPEN COLLECTOR OUTPUT\n*                | | | | |\n.SUBCKT LM393    1 2 3 4 5\n*\n  F1    9  3 V1 1\n  IEE   3  7 DC 100.0E-6\n  VI1  21  1 DC .75\n  VI2  22  2 DC .75\n  Q1    9 21  7 QIN\n  Q2    8 22  7 QIN\n  Q3    9  8  4 QMO\n  Q4    8  8  4 QMI\n.MODEL QIN PNP(IS=800.0E-18 BF=2.000E3)\n.MODEL QMI NPN(IS=800.0E-18 BF=1002)\n.MODEL QMO NPN(IS=800.0E-18 BF=1000 CJC=1E-15 TR=807.4E-9)\n  E1   10  4  9  4  1\n  V1   10 11 DC 0\n  Q5    5 11  4 QOC\n.MODEL QOC NPN(IS=800.0E-18 BF=20.29E3 CJC=1E-15 TF=942.6E-12 TR=543.8E-9)\n  DP    4  3 DX\n  RP 3  4 46.3E3\n.MODEL DX  D(IS=800.0E-18)\n*\n.ENDS\n
